Version 4
SHEET 1 1680 768
WIRE 144 -16 144 -32
WIRE 144 0 144 -16
WIRE -352 16 -352 0
WIRE -240 16 -240 0
WIRE -64 16 -96 16
WIRE -32 16 -64 16
WIRE 112 16 48 16
WIRE 320 32 176 32
WIRE 400 32 320 32
WIRE -352 48 -352 16
WIRE -240 48 -240 16
WIRE 112 48 64 48
WIRE 928 48 928 16
WIRE 928 64 928 48
WIRE 144 80 144 64
WIRE 1216 80 1200 80
WIRE 1248 80 1216 80
WIRE 1360 80 1328 80
WIRE 1424 80 1360 80
WIRE 1456 80 1424 80
WIRE 144 96 144 80
WIRE 1360 112 1360 80
WIRE 64 128 64 48
WIRE 192 128 64 128
WIRE 320 128 320 32
WIRE 320 128 272 128
WIRE 64 160 64 128
WIRE -352 176 -352 128
WIRE -240 176 -240 128
WIRE 928 192 928 144
WIRE 1360 208 1360 176
WIRE -576 272 -576 256
WIRE -400 272 -400 256
WIRE 64 272 64 240
WIRE 192 272 64 272
WIRE 320 272 272 272
WIRE -576 304 -576 272
WIRE -400 304 -400 272
WIRE 144 320 144 304
WIRE 144 336 144 320
WIRE 64 352 64 272
WIRE 112 352 64 352
WIRE 320 368 320 272
WIRE 320 368 176 368
WIRE 416 368 320 368
WIRE 432 368 416 368
WIRE -64 384 -96 384
WIRE -32 384 -64 384
WIRE 112 384 48 384
WIRE 144 416 144 400
WIRE -576 432 -576 384
WIRE -400 432 -400 384
WIRE 144 432 144 416
FLAG 144 80 vcc
FLAG 144 -16 vee
FLAG -240 176 0
FLAG -240 16 vcc
FLAG -352 176 0
FLAG -352 16 vee
FLAG -576 432 0
FLAG -576 272 v2
FLAG 144 320 vcc
FLAG 144 416 vee
FLAG 416 368 vo1
FLAG 400 32 vo2
FLAG -400 432 0
FLAG -400 272 v1
FLAG -64 112 0
FLAG -64 480 0
FLAG -64 384 v1
FLAG -64 16 v2
FLAG 1360 208 0
FLAG 1216 80 vi
FLAG 1424 80 vo
FLAG 928 192 0
FLAG 928 48 vi
SYMBOL OpAmps\\UniversalOpamp2 144 32 M180
SYMATTR InstName U1
SYMBOL voltage -240 32 R0
WINDOW 123 0 0 Left 0
WINDOW 39 0 0 Left 0
SYMATTR InstName V1
SYMATTR Value 10
SYMBOL voltage -352 32 R0
WINDOW 123 0 0 Left 0
WINDOW 39 0 0 Left 0
SYMATTR InstName V2
SYMATTR Value -10
SYMBOL voltage -576 288 R0
WINDOW 123 24 124 Left 2
WINDOW 39 0 0 Left 0
SYMATTR Value2 AC {v2}
SYMATTR InstName V3
SYMATTR Value SINE(0 -.5 1k)
SYMBOL OpAmps\\UniversalOpamp2 144 368 R0
SYMATTR InstName U2
SYMBOL res 64 0 R90
WINDOW 0 0 56 VBottom 2
WINDOW 3 32 56 VTop 2
SYMATTR InstName R1
SYMATTR Value 900
SYMBOL res 64 368 R90
WINDOW 0 0 56 VBottom 2
WINDOW 3 32 56 VTop 2
SYMATTR InstName R2
SYMATTR Value 900
SYMBOL res 48 144 R0
SYMATTR InstName R3
SYMATTR Value 1k
SYMBOL res 288 112 R90
WINDOW 0 0 56 VBottom 2
WINDOW 3 32 56 VTop 2
SYMATTR InstName R4
SYMATTR Value 10k
SYMBOL res 288 256 R90
WINDOW 0 0 56 VBottom 2
WINDOW 3 32 56 VTop 2
SYMATTR InstName R5
SYMATTR Value 10k
SYMBOL voltage -400 288 R0
WINDOW 123 24 124 Left 2
WINDOW 39 0 0 Left 0
SYMATTR Value2 AC {v1}
SYMATTR InstName V4
SYMATTR Value SINE(0 .5 1k)
SYMBOL cap 1344 112 R0
SYMATTR InstName C1
SYMATTR Value {c}
SYMBOL ind 1232 96 R270
WINDOW 0 32 56 VTop 2
WINDOW 3 5 56 VBottom 2
SYMATTR InstName L1
SYMATTR Value {l}
SYMBOL voltage 928 48 R0
WINDOW 123 24 124 Left 2
WINDOW 39 0 0 Left 0
WINDOW 3 24 152 Left 2
SYMATTR Value2 AC 1
SYMATTR InstName V5
SYMATTR Value SINE(0 1 {fr})
TEXT -144 592 Left 2 !**.step param i list 0 1 2 3 4\n**.param v1=table(i, 0,1, 1,0, 2,0, 3,0, 4,1)\n**.param v2=table(i, 0,0, 1,0, 2,1, 3,0, 4,1)\n**.param vot1=table(i, 0,0, 1,1, 2,0, 3,0, 4,1)\n**.param vot2=table(i, 0,0, 1,0, 2,0, 3,1, 4,1)\n.param v1=1 v2=-1
TEXT 1032 256 Left 2 !**.step param i list 0 1 2 3 4\n**.param l=table(i, 0,.step 1u 10u 1u, 1,0, 2,0, 3,0, 4,1)\n**.param c=table(i, 0,1u, 1,1u, 2,1u, 3,1u, 4,1u)\n**.param vot1=table(i, 0,0, 1,1, 2,0, 3,0, 4,1)\n.param c=50u l=50u\n**.step param l 1p 100u 20u\n**.step l 1p 100u 20u
TEXT 1056 512 Left 2 !.step param fr 1k 4k .5k
TEXT 974 584 Left 2 !.tran 0 5m 0
