Version 4
SHEET 1 880 680
WIRE -80 0 -128 0
WIRE 64 0 0 0
WIRE -128 48 -128 0
WIRE -128 64 -128 48
WIRE 64 80 64 0
WIRE -320 144 -416 144
WIRE -208 144 -240 144
WIRE -176 144 -208 144
WIRE -416 176 -416 144
WIRE -128 208 -128 160
WIRE -416 336 -416 256
WIRE -128 336 -128 208
WIRE 64 336 64 160
FLAG -128 336 0
FLAG -416 336 0
FLAG 64 336 0
FLAG -208 144 g
FLAG -128 48 d
FLAG -128 208 s
FLAG -416 144 test
SYMBOL nmos -176 64 R0
SYMATTR InstName M1
SYMATTR Value irf150
SYMATTR Prefix x
SYMBOL voltage -416 160 M0
WINDOW 3 -201 243 Left 2
WINDOW 123 0 0 Left 0
WINDOW 39 0 0 Left 0
SYMATTR InstName V1
SYMATTR Value PULSE(0 {Vpul} {delay} {trf} {trf} {width} {per})
SYMBOL res 16 -16 R90
WINDOW 0 0 56 VBottom 2
WINDOW 3 32 56 VTop 2
SYMATTR InstName R1
SYMATTR Value 10
SYMBOL res -224 128 R90
WINDOW 0 0 56 VBottom 2
WINDOW 3 32 56 VTop 2
SYMATTR InstName R2
SYMATTR Value 50
SYMBOL voltage 64 64 R0
WINDOW 123 0 0 Left 0
WINDOW 39 0 0 Left 0
SYMATTR InstName V2
SYMATTR Value {VDD}
TEXT -536 -144 Left 2 !.lib irf150.spi
TEXT -368 -1336 Left 2 ;* .model IRF150\n* + NMOS(Level=3 Gamma=0 Delta=0 Eta=0 Theta=0 Kappa=0 Vmax=0 Xj=0\n* +Tox=100n Uo=600 Phi=.6 Rs=1.624m Kp=50u W=160u L=2u Vto=2\n* +Rd=1.031m Rds=444.4K Cbd=3.229n Pb=.8 Mj=.5 Fc=.5 Cgso=9.027n\n* +Cgdo=1.679n Rg=13.89 Is=194E-18 N=1 Tt=288n lambda=0.05)\n* * Int'l Rectifier pid=IRFC150 case=TO3 88-08-25 bam creation\n \n.model irf150 nmos (TOX=100N PHI=.6 KP=20.53U W=.3\n+ L=2U VTO=2.831 RD=1.031M RDS=444.4K CBD=3.229N\n+ PB=.8 MJ=.5\n+ CGSO=9.027N CGDO=1.679N RG=13.89 IS=194e-18 N=1\n+ TT=288N)
TEXT -536 -192 Left 2 !.param VDD=80 Vpul=10 delay=1m trf=1p per=20m width=1m
TEXT -706 350 Left 2 !.tran 3m
TEXT -928 -328 Left 2 !.meas t0 find time when V(d)=10*80/100 rise=1\n.meas t find time when V(d)=90*80/100 rise=1\n*.meas t0 find time when V(d)=90*80/100 fall=1\n*.meas t find time when V(d)=10*80/100 fall=1\n.meas delay param t-t0
