Version 4
SHEET 1 1832 1092
WIRE 880 -128 640 -128
WIRE 896 -128 880 -128
WIRE 336 -80 288 -80
WIRE 512 -80 336 -80
WIRE 576 -80 512 -80
WIRE 784 -80 640 -80
WIRE 880 -16 640 -16
WIRE 896 -16 880 -16
WIRE -144 0 -144 -16
WIRE -64 0 -64 -16
WIRE 16 0 16 -16
WIRE 336 32 288 32
WIRE 480 32 336 32
WIRE 576 32 480 32
WIRE 784 32 784 -80
WIRE 784 32 640 32
WIRE -144 48 -144 0
WIRE -64 48 -64 0
WIRE 16 48 16 0
WIRE 880 96 640 96
WIRE 896 96 880 96
WIRE 336 144 288 144
WIRE 448 144 336 144
WIRE 576 144 448 144
WIRE 784 144 784 32
WIRE 784 144 640 144
WIRE 896 144 784 144
WIRE 1120 144 896 144
WIRE 1136 144 1120 144
WIRE -144 176 -144 128
WIRE -64 176 -64 128
WIRE -64 176 -144 176
WIRE 16 176 16 128
WIRE 16 176 -64 176
WIRE 896 192 896 144
WIRE -64 208 -64 176
WIRE 1392 208 1392 160
WIRE -256 320 -256 288
WIRE 512 320 512 -80
WIRE 576 320 512 320
WIRE 784 320 640 320
WIRE 896 320 896 272
WIRE 896 320 784 320
WIRE 1120 320 896 320
WIRE 1136 320 1120 320
WIRE -64 336 -64 288
WIRE 1392 336 1392 288
WIRE -256 368 -256 320
WIRE 880 368 576 368
WIRE 896 368 880 368
WIRE 480 432 480 32
WIRE 576 432 480 432
WIRE 784 432 784 320
WIRE 784 432 640 432
WIRE 880 480 576 480
WIRE 896 480 880 480
WIRE -256 528 -256 448
WIRE 448 544 448 144
WIRE 576 544 448 544
WIRE 784 544 784 432
WIRE 784 544 640 544
WIRE 880 592 576 592
WIRE 896 592 880 592
FLAG -144 0 A
FLAG -64 0 B
FLAG 16 0 C
FLAG -64 336 0
FLAG 1120 144 vo1
FLAG 1120 320 vo2
FLAG 336 -80 A
FLAG 336 32 B
FLAG 336 144 C
FLAG 880 -128 ga1
FLAG 880 -16 gb1
FLAG 880 96 gc1
FLAG 880 368 ga2
FLAG 880 480 gb2
FLAG 880 592 gc2
FLAG 1392 336 0
FLAG -256 528 0
FLAG -256 320 t
SYMBOL voltage -144 32 R0
WINDOW 3 24 96 Invisible 2
WINDOW 123 0 0 Left 0
WINDOW 39 0 0 Left 0
SYMATTR InstName V1
SYMATTR Value SINE(0 {vsp} {f} 0 0 0)
SYMBOL res -80 192 R0
SYMATTR InstName R1
SYMATTR Value 1G
SYMBOL voltage -64 32 R0
WINDOW 3 24 96 Invisible 2
WINDOW 123 0 0 Left 0
WINDOW 39 0 0 Left 0
SYMATTR InstName V2
SYMATTR Value SINE(0 {vsp} {f} 0 0 120)
SYMBOL voltage 16 32 R0
WINDOW 3 24 96 Invisible 2
WINDOW 123 0 0 Left 0
WINDOW 39 0 0 Left 0
SYMATTR InstName V3
SYMATTR Value SINE(0 {vsp} {f} 0 0 -120)
SYMBOL Misc\\SCR 576 -96 M90
WINDOW 0 38 13 VLeft 2
WINDOW 3 -66 111 VLeft 2
SYMATTR InstName U1
SYMATTR Value TN5050H-1200
SYMBOL Misc\\SCR 576 16 M90
WINDOW 0 38 13 VLeft 2
WINDOW 3 24 72 Invisible 2
SYMATTR InstName U2
SYMATTR Value TN5050H-1200
SYMBOL Misc\\SCR 576 128 M90
WINDOW 0 38 13 VLeft 2
WINDOW 3 24 72 Invisible 2
SYMATTR InstName U3
SYMATTR Value TN5050H-1200
SYMBOL res 880 176 R0
SYMATTR InstName R2
SYMATTR Value 25
SYMBOL Misc\\SCR 640 560 M270
WINDOW 0 37 13 VLeft 2
WINDOW 3 24 72 Invisible 2
SYMATTR InstName U4
SYMATTR Value TN5050H-1200
SYMBOL Misc\\SCR 640 448 M270
WINDOW 0 36 13 VLeft 2
WINDOW 3 24 72 Invisible 2
SYMATTR InstName U5
SYMATTR Value TN5050H-1200
SYMBOL Misc\\SCR 640 336 M270
WINDOW 0 37 13 VLeft 2
WINDOW 3 24 72 Invisible 2
SYMATTR InstName U6
SYMATTR Value TN5050H-1200
SYMBOL voltage 1392 192 R0
WINDOW 123 0 0 Left 0
WINDOW 39 0 0 Left 0
SYMATTR InstName V4
SYMATTR Value PULSE(0 {vgg} 0 {trf} {trf} {ton})
SYMBOL bv -256 352 R0
SYMATTR InstName B1
SYMATTR Value V=time
TEXT 64 704 Left 2 !.param vsp=sqrt(2)*50 f=50 vgg=10 trf=1ps ton=1ms
TEXT 0 664 Left 2 !.lib Z:\\UNC\\2022\\powerElectronics\\high-temperature_scr_pspice\\st_high-temperature_scr.lib
TEXT -186 640 Left 2 !.tran 50m
