Version 4
SHEET 1 2376 680
WIRE -592 16 -592 -16
WIRE -480 16 -480 -16
WIRE -592 48 -592 16
WIRE -480 48 -480 16
WIRE 144 48 80 48
WIRE 288 48 224 48
WIRE 1040 64 880 64
WIRE 1184 64 1120 64
<<<<<<< Updated upstream
WIRE 1968 112 1792 112
WIRE 2096 112 2048 112
WIRE 2128 112 2096 112
=======
WIRE 1696 80 1632 80
WIRE 1840 80 1776 80
WIRE -832 128 -832 112
WIRE -832 144 -832 128
>>>>>>> Stashed changes
WIRE 176 144 176 128
WIRE 176 160 176 144
WIRE 1072 160 1072 144
WIRE -48 176 -112 176
WIRE 80 176 80 48
WIRE 80 176 32 176
WIRE 144 176 80 176
WIRE 1072 176 1072 160
WIRE -592 192 -592 128
WIRE -480 192 -480 128
WIRE 288 192 288 48
WIRE 288 192 208 192
WIRE 368 192 288 192
WIRE 752 192 640 192
WIRE 880 192 880 64
WIRE 880 192 832 192
WIRE 1040 192 880 192
WIRE -368 208 -368 176
WIRE 144 208 112 208
WIRE 1184 208 1184 64
WIRE 1184 208 1104 208
WIRE 1264 208 1184 208
WIRE 2016 208 2016 192
WIRE -368 224 -368 208
WIRE 880 224 880 192
WIRE 1040 224 1008 224
<<<<<<< Updated upstream
WIRE 2016 224 2016 208
WIRE 176 240 176 224
WIRE 1664 240 1600 240
WIRE 1792 240 1792 112
WIRE 1792 240 1744 240
WIRE 1984 240 1792 240
=======
WIRE 1920 224 1760 224
WIRE 176 240 176 224
WIRE 1696 240 1664 240
WIRE -832 256 -832 224
>>>>>>> Stashed changes
WIRE 176 256 176 240
WIRE 1072 256 1072 240
WIRE 2160 256 2048 256
WIRE 2288 256 2160 256
WIRE -48 272 -112 272
WIRE 80 272 80 176
WIRE 80 272 32 272
WIRE 1072 272 1072 256
WIRE 1984 272 1952 272
WIRE 1600 288 1600 240
WIRE 2016 304 2016 288
WIRE -720 320 -720 288
WIRE -544 320 -544 288
WIRE 112 320 112 208
WIRE 2016 320 2016 304
WIRE 1008 336 1008 224
WIRE 1664 336 1600 336
WIRE 1792 336 1792 240
WIRE 1792 336 1744 336
WIRE -720 352 -720 320
WIRE -544 352 -544 320
WIRE 1952 352 1952 272
WIRE -368 368 -368 304
WIRE 880 368 880 304
WIRE 1600 384 1600 336
WIRE 1888 448 1888 432
WIRE 1888 464 1888 448
WIRE -720 496 -720 432
WIRE -544 496 -544 432
WIRE 1888 576 1888 544
FLAG 112 320 0
FLAG 176 144 vcc
FLAG 176 240 vee
FLAG 2160 256 vo
FLAG -592 192 0
FLAG -592 16 vcc
FLAG -480 192 0
FLAG -480 16 vee
FLAG -720 496 0
FLAG -720 320 v1
FLAG -544 496 0
FLAG -544 320 v2
FLAG 1008 336 0
FLAG 1072 160 vcc
FLAG 1072 256 vee
FLAG 880 368 0
<<<<<<< Updated upstream
FLAG 2016 208 vcc
FLAG 2016 304 vee
FLAG 1600 384 0
FLAG 1600 288 0
FLAG -368 368 0
FLAG -368 208 vi
FLAG 1888 576 0
FLAG 1888 448 vos
FLAG 1952 352 0
FLAG 2096 112 vos
DATAFLAG 2272 256 "1/($/V(vos))"
=======
FLAG 1664 352 0
FLAG 1728 176 vcc
FLAG 1728 272 vee
FLAG 1440 352 0
FLAG 1440 256 0
FLAG -832 256 0
FLAG -832 128 1v
>>>>>>> Stashed changes
SYMBOL res 48 160 R90
WINDOW 0 0 56 Invisible 2
WINDOW 3 32 56 VTop 2
SYMATTR InstName R1
SYMATTR Value {pR*m}
SYMBOL res 240 32 R90
WINDOW 0 0 56 Invisible 2
WINDOW 3 32 56 VTop 2
SYMATTR InstName R3
SYMATTR Value {pRf*m}
SYMBOL voltage -592 32 R0
WINDOW 123 0 0 Left 0
WINDOW 39 0 0 Left 0
SYMATTR InstName V1
SYMATTR Value 10
SYMBOL voltage -480 32 R0
WINDOW 123 0 0 Left 0
WINDOW 39 0 0 Left 0
SYMATTR InstName V2
SYMATTR Value -10
SYMBOL voltage -720 336 R0
WINDOW 123 24 124 Left 2
WINDOW 39 24 152 Left 2
SYMATTR Value2 AC {pV1}
SYMATTR SpiceLine Rser=50
SYMATTR InstName V3
<<<<<<< Updated upstream
SYMATTR Value ""
=======
SYMATTR Value 0
>>>>>>> Stashed changes
SYMBOL voltage -544 336 R0
WINDOW 123 24 124 Left 2
WINDOW 39 24 152 Left 2
SYMATTR Value2 AC {pV2}
SYMATTR SpiceLine Rser=50
SYMATTR InstName V4
<<<<<<< Updated upstream
SYMATTR Value ""
=======
SYMATTR Value 0
>>>>>>> Stashed changes
SYMBOL res 48 256 R90
WINDOW 0 0 56 Invisible 2
WINDOW 3 32 56 VTop 2
SYMATTR InstName R2
SYMATTR Value {pR}
SYMBOL OpAmps\\opamp2 176 128 R0
SYMATTR InstName U1
SYMATTR Value LM324
SYMBOL res 848 176 R90
WINDOW 0 0 56 Invisible 2
WINDOW 3 32 56 VTop 2
SYMATTR InstName R4
SYMATTR Value {pR}
SYMBOL res 1136 48 R90
WINDOW 0 0 56 Invisible 2
WINDOW 3 32 56 VTop 2
SYMATTR InstName R5
SYMATTR Value {pRf}
SYMBOL res 864 208 R0
WINDOW 0 36 40 Invisible 2
SYMATTR InstName R6
SYMATTR Value {pR}
SYMBOL OpAmps\\opamp2 1072 144 R0
SYMATTR InstName U2
SYMATTR Value LM324
SYMBOL res 1760 224 R90
WINDOW 0 0 56 Invisible 2
WINDOW 3 32 56 VTop 2
SYMATTR InstName R7
SYMATTR Value {pR}
SYMBOL res 2064 96 R90
WINDOW 0 0 56 Invisible 2
WINDOW 3 32 56 VTop 2
SYMATTR InstName R8
SYMATTR Value {pRf}
SYMBOL res 1760 320 R90
WINDOW 0 0 56 Invisible 2
WINDOW 3 32 56 VTop 2
SYMATTR InstName R9
SYMATTR Value {pR}
SYMBOL OpAmps\\opamp2 2016 192 R0
SYMATTR InstName U3
SYMATTR Value LM324
<<<<<<< Updated upstream
SYMBOL voltage -368 208 R0
=======
SYMBOL voltage -832 128 R0
>>>>>>> Stashed changes
WINDOW 123 24 124 Left 2
WINDOW 39 0 0 Left 0
SYMATTR InstName V5
SYMATTR Value 1
SYMATTR Value2 AC 1
<<<<<<< Updated upstream
SYMBOL voltage 1888 448 R0
WINDOW 123 0 0 Left 0
WINDOW 39 0 0 Left 0
SYMATTR InstName V6
SYMATTR Value 1
TEXT -72 -48 Left 2 !.lib Z:\\UNC\\2021\\sintesis\\libs\\LM324.lib.txt
TEXT -224 -256 Left 2 !.lib Z:\\sintesis\\lab2\\LM741.lib.txt
TEXT -632 -192 Left 2 !.param i=0\n**.step param i list 0 1 2\n.param pV1 table(i, 0,1, 1,0, 2,1, 3,0)\n.param pV2 table(i, 0,0, 1,1, 2,1, 3,0)
=======
TEXT -72 -48 Left 2 !.lib Z:\\UNC\\2021\\sintesis\\libs\\LM324.lib.txt
TEXT -224 -256 Left 2 !.lib Z:\\sintesis\\lab2\\LM741.lib.txt
TEXT -696 -184 Left 2 !**.step param i list 0 1 2\n.param i=3\n.param pV1 table(i, 0,1, 1,0, 2,1, 3,0)\n.param pV2 table(i, 0,0, 1,1, 2,1, 3,0)
>>>>>>> Stashed changes
TEXT -56 -88 Left 4 ;C1: Amplificador Sumador
TEXT -24 240 Left 2 ;R
TEXT -24 144 Left 2 ;R
TEXT 168 16 Left 2 ;Rf
TEXT 912 248 Left 2 ;R
TEXT 776 160 Left 2 ;R
TEXT 1064 32 Left 2 ;Rf
<<<<<<< Updated upstream
TEXT -72 -24 Left 2 ;.parameter pR=500 pRf=15k
TEXT 1688 304 Left 2 ;R
TEXT 1688 208 Left 2 ;R
TEXT 1992 80 Left 2 ;Rf
TEXT 1784 -16 Left 4 ;C1: Errores DC
TEXT -762 584 Left 2 !.op
TEXT 1752 24 Left 2 !.parameter pR=500 pRf=15k
=======
TEXT -72 -16 Left 2 !.parameter pR=500 pRf=15k m=100
TEXT 1528 272 Left 2 ;R
TEXT 1528 176 Left 2 ;R
TEXT 1720 48 Left 2 ;Rf
TEXT -874 520 Left 2 !.dc v3 -10 10 .001
>>>>>>> Stashed changes
