Version 4
SHEET 1 1432 680
WIRE -32 -32 -96 -32
WIRE 80 -32 48 -32
WIRE 112 -32 80 -32
WIRE 256 -32 192 -32
WIRE 80 0 80 -32
WIRE -592 16 -592 -16
WIRE -480 16 -480 -16
WIRE -592 48 -592 16
WIRE -480 48 -480 16
WIRE 80 112 80 80
WIRE 0 160 0 144
WIRE 0 176 0 160
WIRE -592 192 -592 128
WIRE -480 192 -480 128
WIRE -256 192 -288 192
WIRE -224 192 -256 192
WIRE -96 192 -96 -32
WIRE -96 192 -144 192
WIRE -32 192 -96 192
WIRE 256 208 256 -32
WIRE 256 208 32 208
WIRE 304 208 256 208
WIRE 320 208 304 208
WIRE -32 224 -64 224
WIRE 0 256 0 240
WIRE 0 272 0 256
WIRE -256 288 -288 288
WIRE -224 288 -256 288
WIRE -96 288 -96 192
WIRE -96 288 -144 288
WIRE -656 320 -656 288
WIRE -544 320 -544 288
WIRE -64 336 -64 224
WIRE -656 352 -656 320
WIRE -544 352 -544 320
WIRE -656 496 -656 432
WIRE -544 496 -544 432
FLAG -64 336 0
FLAG 0 160 vcc
FLAG 0 256 vee
FLAG -256 192 v1
FLAG -256 288 v2
FLAG -592 192 0
FLAG -592 16 vcc
FLAG -480 192 0
FLAG -480 16 vee
FLAG -656 496 0
FLAG -656 320 v1
FLAG -544 496 0
FLAG -544 320 v2
FLAG 80 112 0
FLAG 304 208 vo
SYMBOL res -128 176 R90
WINDOW 0 0 56 Invisible 2
WINDOW 3 32 56 VTop 2
SYMATTR InstName R1
SYMATTR Value {pR}
SYMBOL voltage -592 32 R0
WINDOW 123 0 0 Left 0
WINDOW 39 0 0 Left 0
SYMATTR InstName V1
SYMATTR Value 10
SYMBOL voltage -480 32 R0
WINDOW 123 0 0 Left 0
WINDOW 39 0 0 Left 0
SYMATTR InstName V2
SYMATTR Value -10
SYMBOL voltage -656 336 R0
WINDOW 123 24 124 Left 2
WINDOW 39 0 0 Left 0
SYMATTR Value2 AC {pV1}
SYMATTR InstName V3
SYMATTR Value ""
SYMBOL voltage -544 336 R0
WINDOW 123 24 124 Left 2
WINDOW 39 0 0 Left 0
SYMATTR Value2 AC {pV2}
SYMATTR InstName V4
SYMATTR Value ""
SYMBOL OpAmps\\UniversalOpamp2 0 208 R0
SYMATTR InstName U2
SYMBOL res -128 272 R90
WINDOW 0 0 56 Invisible 2
WINDOW 3 32 56 VTop 2
SYMATTR InstName R2
SYMATTR Value {pR}
SYMBOL res 64 -48 R90
WINDOW 0 0 56 Invisible 2
WINDOW 3 32 56 VTop 2
SYMATTR InstName R3
SYMATTR Value {pRa}
SYMBOL res 96 96 R180
WINDOW 0 36 76 Invisible 2
WINDOW 3 36 40 Left 2
SYMATTR InstName R4
SYMATTR Value {pRc}
SYMBOL res 96 -16 R270
WINDOW 0 32 56 Invisible 2
WINDOW 3 0 56 VBottom 2
SYMATTR InstName R5
SYMATTR Value {pRb}
TEXT -184 -136 Left 2 !.param pR=1Meg
TEXT -184 -168 Left 2 !.lib Z:\\UNC\\2021\\sintesis\\libs\\LM324.lib.txt
TEXT -816 -184 Left 2 !**.step param i list 0 1 2\n.param i 0\n.param pV1 table(i, 0,1, 1,0, 2,1)\n.param pV2 table(i, 0,0, 1,1, 2,1)
TEXT -392 568 Left 2 !.ac dec 100 1 100Meg
TEXT -56 -216 Left 4 ;C1B: Sumador
TEXT -200 256 Left 2 ;R
TEXT -200 160 Left 2 ;R
TEXT -8 -64 Left 2 ;Ra
TEXT 136 -64 Left 2 ;Rb
TEXT 32 24 Left 2 ;Rc
