Version 4
SHEET 1 1716 984
WIRE 1072 224 720 224
WIRE 1152 224 1072 224
WIRE 1376 224 1216 224
WIRE 1056 304 816 304
WIRE 1152 304 1056 304
WIRE 1376 304 1376 224
WIRE 1376 304 1216 304
WIRE 1040 384 912 384
WIRE 1152 384 1040 384
WIRE 1376 384 1376 304
WIRE 1376 384 1216 384
WIRE 1488 384 1376 384
WIRE 1520 384 1488 384
WIRE 720 432 720 224
WIRE 816 432 816 304
WIRE 912 432 912 384
WIRE 1376 448 1376 384
WIRE 720 592 720 512
WIRE 816 592 816 512
WIRE 816 592 720 592
WIRE 912 592 912 512
WIRE 912 592 816 592
WIRE 1072 608 1072 224
WIRE 1152 608 1072 608
WIRE 1376 608 1376 528
WIRE 1376 608 1216 608
WIRE 816 640 816 592
WIRE 1056 688 1056 304
WIRE 1152 688 1056 688
WIRE 1376 688 1376 608
WIRE 1376 688 1216 688
WIRE 1040 768 1040 384
WIRE 1152 768 1040 768
WIRE 1376 768 1376 688
WIRE 1376 768 1216 768
FLAG 720 224 A
FLAG 816 304 B
FLAG 912 384 C
FLAG 1488 384 Vo
FLAG 816 640 0
SYMBOL res 1360 432 R0
WINDOW 3 36 76 Invisible 2
SYMATTR Value 1
SYMATTR InstName RL
SYMBOL diode 1152 240 R270
WINDOW 0 32 32 VTop 2
WINDOW 3 0 32 Invisible 2
SYMATTR InstName DA1
SYMBOL diode 1216 592 R90
WINDOW 0 0 32 VBottom 2
WINDOW 3 32 32 Invisible 2
SYMATTR InstName DA2
SYMBOL diode 1152 320 R270
WINDOW 0 32 32 VTop 2
WINDOW 3 0 32 Invisible 2
SYMATTR InstName DB1
SYMBOL diode 1152 400 R270
WINDOW 0 32 32 VTop 2
WINDOW 3 0 32 Invisible 2
SYMATTR InstName DC1
SYMBOL diode 1216 672 R90
WINDOW 0 0 32 VBottom 2
WINDOW 3 32 32 Invisible 2
SYMATTR InstName DB2
SYMBOL diode 1216 752 R90
WINDOW 0 0 32 VBottom 2
WINDOW 3 32 32 Invisible 2
SYMATTR InstName DC2
SYMBOL voltage 720 416 R0
WINDOW 3 24 96 Invisible 2
WINDOW 123 0 0 Left 0
WINDOW 39 0 0 Left 0
SYMATTR Value SINE(0 1 50 0 0 120)
SYMATTR InstName VA
SYMBOL voltage 912 416 R0
WINDOW 3 24 96 Invisible 2
WINDOW 123 0 0 Left 0
WINDOW 39 0 0 Left 0
SYMATTR Value SINE(0 1 50 0 0 -120)
SYMATTR InstName VC
SYMBOL voltage 816 416 R0
WINDOW 3 24 96 Invisible 2
WINDOW 123 0 0 Left 0
WINDOW 39 0 0 Left 0
SYMATTR Value SINE(0 1 50 0 0 0)
SYMATTR InstName VB
TEXT 680 -8 Left 2 ;.param VDC0=25.5+.8 on0=1.288 off0=-16.5+.8 \n+ VDC1=1.5+.7 on1=1.698 off1=-.9 \n+ delay=100n
TEXT 520 48 Left 2 !.tran 50m
