Version 4
SHEET 1 1716 984
WIRE -16 -464 -208 -464
WIRE 64 -464 -16 -464
WIRE 272 -464 144 -464
WIRE 976 -464 784 -464
WIRE 1056 -464 976 -464
WIRE 1264 -464 1136 -464
WIRE -16 -416 -16 -464
WIRE 976 -416 976 -464
WIRE -208 -368 -208 -464
WIRE 272 -368 272 -464
WIRE 784 -368 784 -464
WIRE 1264 -368 1264 -464
WIRE -16 -304 -16 -352
WIRE 976 -304 976 -352
WIRE -208 -192 -208 -288
WIRE -16 -192 -16 -224
WIRE -16 -192 -208 -192
WIRE 272 -192 272 -288
WIRE 272 -192 -16 -192
WIRE 784 -192 784 -288
WIRE 976 -192 976 -224
WIRE 976 -192 784 -192
WIRE 1264 -192 1264 -288
WIRE 1264 -192 976 -192
WIRE -16 -160 -16 -192
WIRE 976 -160 976 -192
WIRE 1072 224 720 224
WIRE 1152 224 1072 224
WIRE 1296 224 1216 224
WIRE 1056 304 816 304
WIRE 1152 304 1056 304
WIRE 1296 304 1296 224
WIRE 1296 304 1216 304
WIRE 1376 304 1296 304
WIRE 1040 384 912 384
WIRE 1152 384 1040 384
WIRE 1296 384 1296 304
WIRE 1296 384 1216 384
WIRE 720 432 720 224
WIRE 816 432 816 304
WIRE 912 432 912 384
WIRE 1376 432 1376 304
WIRE 720 592 720 512
WIRE 816 592 816 512
WIRE 816 592 720 592
WIRE 912 592 912 512
WIRE 912 592 816 592
WIRE 1072 608 1072 224
WIRE 1152 608 1072 608
WIRE 1376 608 1376 512
WIRE 1376 608 1216 608
WIRE 1056 688 1056 304
WIRE 1152 688 1056 688
WIRE 1376 688 1376 608
WIRE 1376 688 1216 688
WIRE 1040 768 1040 384
WIRE 1152 768 1040 768
WIRE 1376 768 1376 688
WIRE 1376 768 1216 768
WIRE 816 832 816 592
FLAG 976 -160 0
FLAG -16 -160 0
FLAG 816 832 0
FLAG 720 224 A
FLAG 816 304 B
FLAG 912 384 C
SYMBOL diode -32 -416 R0
SYMATTR InstName MR
SYMATTR Value MR850
SYMBOL voltage 784 -384 R0
WINDOW 123 0 0 Left 0
WINDOW 39 24 124 Left 2
SYMATTR SpiceLine Rser=50
SYMATTR InstName V1
SYMATTR Value {VDC1}
SYMBOL res 1152 -480 R90
WINDOW 0 0 56 VBottom 2
WINDOW 3 32 56 VTop 2
SYMATTR InstName R1
SYMATTR Value 10
SYMBOL res 960 -320 R0
SYMATTR InstName R2
SYMATTR Value 100
SYMBOL voltage 1264 -384 R0
WINDOW 123 0 0 Left 0
WINDOW 39 0 0 Left 0
SYMATTR InstName V2
SYMATTR Value PULSE({on1} {off1} 100n 1p 1p 1u)
SYMBOL diode 960 -416 R0
SYMATTR InstName 1N
SYMATTR Value 1N4148
SYMBOL voltage -208 -384 R0
WINDOW 123 0 0 Left 0
WINDOW 39 24 124 Left 2
SYMATTR SpiceLine Rser=50
SYMATTR InstName V3
SYMATTR Value {VDC0}
SYMBOL res 160 -480 R90
WINDOW 0 0 56 VBottom 2
WINDOW 3 32 56 VTop 2
SYMATTR InstName R3
SYMATTR Value 10
SYMBOL res -32 -320 R0
SYMATTR InstName R4
SYMATTR Value 1
SYMBOL voltage 272 -384 R0
WINDOW 123 0 0 Left 0
WINDOW 39 0 0 Left 0
SYMATTR InstName V4
SYMATTR Value PULSE({on0} {off0} 100n 1p 1p 1u)
SYMBOL res 1360 416 R0
WINDOW 3 36 76 Invisible 2
SYMATTR Value 1
SYMATTR InstName RL
SYMBOL diode 1152 240 R270
WINDOW 0 32 32 VTop 2
WINDOW 3 0 32 Invisible 2
SYMATTR InstName DA1
SYMBOL diode 1216 592 R90
WINDOW 0 0 32 VBottom 2
WINDOW 3 32 32 Invisible 2
SYMATTR InstName DA2
SYMBOL diode 1152 320 R270
WINDOW 0 32 32 VTop 2
WINDOW 3 0 32 Invisible 2
SYMATTR InstName DB1
SYMBOL diode 1152 400 R270
WINDOW 0 32 32 VTop 2
WINDOW 3 0 32 Invisible 2
SYMATTR InstName DC1
SYMBOL diode 1216 672 R90
WINDOW 0 0 32 VBottom 2
WINDOW 3 32 32 Invisible 2
SYMATTR InstName DB2
SYMBOL diode 1216 752 R90
WINDOW 0 0 32 VBottom 2
WINDOW 3 32 32 Invisible 2
SYMATTR InstName DC2
SYMBOL voltage 720 416 R0
WINDOW 3 24 96 Invisible 2
WINDOW 123 0 0 Left 0
WINDOW 39 0 0 Left 0
SYMATTR InstName VA
SYMATTR Value SINE(0 1 50 0 0 120)
SYMBOL voltage 912 416 R0
WINDOW 3 24 96 Invisible 2
WINDOW 123 0 0 Left 0
WINDOW 39 0 0 Left 0
SYMATTR InstName VC
SYMATTR Value SINE(0 1 50 0 0 -120)
SYMBOL voltage 816 416 R0
WINDOW 3 24 96 Invisible 2
WINDOW 123 0 0 Left 0
WINDOW 39 0 0 Left 0
SYMATTR InstName VB
SYMATTR Value SINE(0 1 50 0 0 0)
TEXT -224 -608 Left 2 !.model MR850 D(Is=111.5f Rs=7.494m Ikf=.1157\n+ N=1 Xti=3 Eg=1.11 Cjo=72.84p M=.4441 Vj=.75 \n+ Fc=.5 Isr=56.92n Nr=2 TT=369.9n)
TEXT 304 -104 Left 2 ;.tran 0 500n 0
TEXT 304 -72 Left 2 ;.param VDC0=25.5+.8 on0=1.288 off0=-16.5-.8 \n+ VDC1=1.5+.7 on1=1.698 off1=-1.1-1.5\n+ delay=100n
TEXT 784 -600 Left 2 !.model 1N4148 D(Is=2.52n Rs=.568 N=1.752 \n+ Cjo=4p M=.4 tt=10n Iave=200m Vpk=75 \n+ mfg=OnSemi type=silicon)
TEXT -104 80 Left 2 !.param VDC0=25.5+.8 on0=1.288 off0=-16.5+.8 \n+ VDC1=1.5+.7 on1=1.698 off1=-.9 \n+ delay=100n
TEXT 648 128 Left 3 ;Transformador trifasico\n(Sec. en estrella)
TEXT 1096 464 Left 3 ;Puente/\nDisipadores
TEXT 1488 464 Left 3 ;Carga
TEXT -242 870 Left 2 !.tran 50m
RECTANGLE Normal 1024 560 640 384 1
RECTANGLE Normal 1280 864 1088 160 1
CIRCLE Normal 1456 576 1328 368 1
