Version 4
SHEET 1 1716 984
WIRE -16 -464 -208 -464
WIRE 64 -464 -16 -464
WIRE 272 -464 144 -464
WIRE 976 -464 784 -464
WIRE 1056 -464 976 -464
WIRE 1264 -464 1136 -464
WIRE -16 -416 -16 -464
WIRE 976 -416 976 -464
WIRE -208 -368 -208 -464
WIRE 272 -368 272 -464
WIRE 784 -368 784 -464
WIRE 1264 -368 1264 -464
WIRE -16 -304 -16 -352
WIRE 976 -304 976 -352
WIRE -208 -192 -208 -288
WIRE -16 -192 -16 -224
WIRE -16 -192 -208 -192
WIRE 272 -192 272 -288
WIRE 272 -192 -16 -192
WIRE 784 -192 784 -288
WIRE 976 -192 976 -224
WIRE 976 -192 784 -192
WIRE 1264 -192 1264 -288
WIRE 1264 -192 976 -192
WIRE -16 -160 -16 -192
WIRE 976 -160 976 -192
FLAG 976 -160 0
FLAG -16 -160 0
SYMBOL diode -32 -416 R0
SYMATTR InstName MR
SYMATTR Value MR850
SYMBOL voltage 784 -384 R0
WINDOW 123 0 0 Left 0
WINDOW 39 24 124 Left 2
SYMATTR InstName V1
SYMATTR Value {VDC1}
SYMATTR SpiceLine Rser=50
SYMBOL res 1152 -480 R90
WINDOW 0 0 56 VBottom 2
WINDOW 3 32 56 VTop 2
SYMATTR InstName R1
SYMATTR Value 10
SYMBOL res 960 -320 R0
SYMATTR InstName R2
SYMATTR Value 100
SYMBOL voltage 1264 -384 R0
WINDOW 123 0 0 Left 0
WINDOW 39 0 0 Left 0
SYMATTR InstName V2
SYMATTR Value PULSE({on1} {off1} 100n 1p 1p 1u)
SYMBOL diode 960 -416 R0
SYMATTR InstName 1N
SYMATTR Value 1N4148
SYMBOL voltage -208 -384 R0
WINDOW 123 0 0 Left 0
WINDOW 39 24 124 Left 2
SYMATTR InstName V3
SYMATTR Value {VDC0}
SYMATTR SpiceLine Rser=50
SYMBOL res 160 -480 R90
WINDOW 0 0 56 VBottom 2
WINDOW 3 32 56 VTop 2
SYMATTR InstName R3
SYMATTR Value 10
SYMBOL res -32 -320 R0
SYMATTR InstName R4
SYMATTR Value 1
SYMBOL voltage 272 -384 R0
WINDOW 123 0 0 Left 0
WINDOW 39 0 0 Left 0
SYMATTR InstName V4
SYMATTR Value PULSE({on0} {off0} 100n 1p 1p 1u)
TEXT -224 -608 Left 2 !.model MR850 D(Is=111.5f Rs=7.494m Ikf=.1157\n+ N=1 Xti=3 Eg=1.11 Cjo=72.84p M=.4441 Vj=.75 \n+ Fc=.5 Isr=56.92n Nr=2 TT=369.9n)
TEXT 302 -104 Left 2 !.tran 0 500n 0
TEXT 304 -72 Left 2 !.param VDC0=25.5+.8 on0=1.288 off0=-16.5+.8 \n+ VDC1=1.5+.7 on1=1.698 off1=-.9 \n+ delay=100n
