Version 4
SHEET 1 880 680
SYMBOL diode 96 112 R0
SYMATTR InstName D1
SYMATTR Value 1N4148
SYMBOL diode 272 112 R0
SYMATTR InstName D2
