Version 4
SHEET 1 1548 1132
WIRE -704 48 -1104 48
WIRE -704 64 -1072 64
WIRE 80 64 80 16
WIRE 112 64 112 16
WIRE 144 64 144 16
WIRE -1216 96 -1440 96
WIRE -1168 96 -1216 96
WIRE -1008 96 -1104 96
WIRE -912 96 -1008 96
WIRE -1072 128 -1072 64
WIRE -1072 128 -1104 128
WIRE -912 160 -912 96
WIRE -1440 176 -1440 96
WIRE -1248 176 -1360 176
WIRE -1168 176 -1248 176
WIRE -1008 176 -1008 96
WIRE -1008 176 -1104 176
WIRE 80 176 80 144
WIRE -112 224 -448 224
WIRE 16 224 -112 224
WIRE 288 224 80 224
WIRE 352 224 288 224
WIRE 448 224 352 224
WIRE 480 224 448 224
WIRE 112 256 112 144
WIRE 112 256 80 256
WIRE -144 304 -368 304
WIRE 16 304 -144 304
WIRE 288 304 288 224
WIRE 288 304 80 304
WIRE 144 336 144 144
WIRE 144 336 80 336
WIRE 352 336 352 224
WIRE -1440 352 -1440 256
WIRE -1360 352 -1360 176
WIRE -1360 352 -1440 352
WIRE -1216 352 -1216 96
WIRE -1168 352 -1216 352
WIRE -1040 352 -1104 352
WIRE -176 384 -288 384
WIRE 16 384 -176 384
WIRE 288 384 288 304
WIRE 288 384 80 384
WIRE -448 416 -448 224
WIRE -368 416 -368 304
WIRE -288 416 -288 384
WIRE -1248 480 -1248 176
WIRE -1168 480 -1248 480
WIRE -1040 480 -1040 352
WIRE -1040 480 -1104 480
WIRE -912 480 -912 240
WIRE -912 480 -1040 480
WIRE -448 544 -448 496
WIRE -368 544 -368 496
WIRE -368 544 -448 544
WIRE -288 544 -288 496
WIRE -288 544 -368 544
WIRE -112 544 -112 224
WIRE 16 544 -112 544
WIRE 352 544 352 416
WIRE 352 544 80 544
WIRE 448 544 352 544
WIRE 480 544 448 544
WIRE 1056 592 1056 560
WIRE 1168 592 1168 560
WIRE 1280 592 1280 560
WIRE -144 624 -144 304
WIRE 16 624 -144 624
WIRE 352 624 352 544
WIRE 352 624 80 624
WIRE 1056 640 1056 592
WIRE 1168 640 1168 592
WIRE 1280 640 1280 592
WIRE -368 656 -368 544
WIRE -176 704 -176 384
WIRE 16 704 -176 704
WIRE 352 704 352 624
WIRE 352 704 80 704
WIRE -368 784 -368 736
WIRE 1056 800 1056 720
WIRE 1168 800 1168 720
WIRE 1280 800 1280 720
FLAG 448 224 vo1
FLAG -448 224 A
FLAG -368 304 B
FLAG -288 384 C
FLAG 1056 800 0
FLAG 1056 592 g1
FLAG 1168 800 0
FLAG 1168 592 g2
FLAG 1280 800 0
FLAG 1280 592 g3
FLAG 80 16 g1
FLAG -368 784 0
FLAG 112 16 g2
FLAG 144 16 g3
FLAG 448 544 vo2
SYMBOL Misc\\SCR 16 208 M90
WINDOW 3 109 86 Invisible 2
SYMATTR Value TN5050H-1200
SYMATTR InstName U1
SYMBOL voltage -448 400 R0
WINDOW 123 0 0 Left 0
WINDOW 39 0 0 Left 0
WINDOW 3 24 96 Invisible 2
SYMATTR Value SINE(0 {vsp} {f})
SYMATTR InstName VA
SYMBOL voltage 1056 624 R0
WINDOW 123 0 0 Left 0
WINDOW 39 0 0 Left 0
WINDOW 3 -48 240 VLeft 2
SYMATTR Value PULSE(0 {vg} {ign/(f*360)} {trf} {trf} 1m {1/f})
SYMATTR InstName V2
SYMBOL voltage -1440 160 R0
WINDOW 123 0 0 Left 0
WINDOW 39 0 0 Left 0
WINDOW 0 24 16 Invisible 2
WINDOW 3 24 96 Invisible 2
SYMATTR InstName V3
SYMATTR Value 1
SYMBOL voltage -368 400 R0
WINDOW 123 0 0 Left 0
WINDOW 39 0 0 Left 0
WINDOW 3 24 96 Invisible 2
SYMATTR Value SINE(0 {vsp} {f} 0 0 -120)
SYMATTR InstName VB
SYMBOL voltage -288 400 R0
WINDOW 123 0 0 Left 0
WINDOW 39 0 0 Left 0
WINDOW 3 24 96 Invisible 2
SYMATTR Value SINE(0 {vsp} {f} 0 0 120)
SYMATTR InstName VC
SYMBOL Misc\\SCR 16 288 M90
WINDOW 3 24 72 Invisible 2
SYMATTR Value TN5050H-1200
SYMATTR InstName U2
SYMBOL Misc\\SCR 16 368 M90
WINDOW 3 68 107 VLeft 2
SYMATTR Value TN5050H-1200
SYMATTR InstName U3
SYMBOL res 336 320 R0
SYMATTR InstName RL
SYMATTR Value 25
SYMBOL voltage 1168 624 R0
WINDOW 123 0 0 Left 0
WINDOW 39 0 0 Left 0
WINDOW 3 -43 242 VLeft 2
SYMATTR Value PULSE(0 {vg} {(ign+120)/(f*360)} {trf} {trf} 1m {1/f})
SYMATTR InstName V1
SYMBOL voltage 1280 624 R0
WINDOW 123 0 0 Left 0
WINDOW 39 0 0 Left 0
WINDOW 3 -48 243 VLeft 2
SYMATTR Value PULSE(0 {vg} {(ign+240)/(f*360)} {trf} {trf} 1m {1/f})
SYMATTR InstName V4
SYMBOL res 64 48 R0
WINDOW 0 36 40 Invisible 2
WINDOW 3 36 76 Invisible 2
SYMATTR InstName R3
SYMATTR Value {rg}
SYMBOL res 96 48 R0
WINDOW 0 36 40 Invisible 2
WINDOW 3 36 76 Invisible 2
SYMATTR InstName R4
SYMATTR Value {rg}
SYMBOL res 128 48 R0
WINDOW 0 36 40 Invisible 2
SYMATTR InstName R5
SYMATTR Value {rg}
SYMBOL diode 80 528 R90
WINDOW 0 0 32 VBottom 2
WINDOW 3 32 32 VTop 2
SYMATTR InstName D1
SYMBOL diode 80 608 R90
WINDOW 0 0 32 VBottom 2
WINDOW 3 32 32 VTop 2
SYMATTR InstName D2
SYMBOL diode 80 688 R90
WINDOW 0 0 32 VBottom 2
WINDOW 3 32 32 VTop 2
SYMATTR InstName D3
SYMBOL res -384 640 R0
SYMATTR InstName R6
SYMATTR Value 1G
SYMBOL res -928 144 R0
WINDOW 0 36 40 Invisible 2
WINDOW 3 36 76 Invisible 2
SYMATTR InstName R1
SYMATTR Value 1
SYMBOL Misc\\SCR -1168 80 M90
WINDOW 3 109 86 Invisible 2
WINDOW 0 24 0 Invisible 2
SYMATTR Value TN5050H-1200
SYMATTR InstName U4
SYMBOL diode -1104 336 R90
WINDOW 0 0 32 Invisible 2
WINDOW 3 32 32 Invisible 2
SYMATTR InstName D4
SYMBOL Misc\\SCR -1168 160 M90
WINDOW 3 109 86 Invisible 2
WINDOW 0 24 0 Invisible 2
SYMATTR Value TN5050H-1200
SYMATTR InstName U5
SYMBOL diode -1104 464 R90
WINDOW 0 0 32 Invisible 2
WINDOW 3 32 32 Invisible 2
SYMATTR InstName D5
TEXT -376 -128 Left 2 !.lib Z:\\UNC\\2022\\powerElectronics\\high-temperature_scr_pspice\\st_high-temperature_scr.lib
TEXT -280 752 Left 2 !.param vg=27 rg=180 ign=135 trf=1p f=50 vsp=50*sqrt(2)
TEXT -696 112 Left 2 ;DISPAROS
TEXT -1440 -24 Left 2 ;FASE
TEXT -1264 -24 Left 2 ;PUENTE/SCRs y Disipadores
TEXT -880 184 Left 2 ;CARGA
TEXT -96 912 Left 2 !.tran 0 {6.6m*10+7.5m} 7.5m
TEXT -104 816 Left 2 !*.step param ign 0 150 10\n*.step param vg 10 100 1
TEXT -232 1032 Left 2 !.meas Vo avg(v(vo1,vo2))\n.meas VL rms(v(vo1,vo2))\n.meas Io avg(i(RL))\n.meas IL rms(i(RL))
RECTANGLE Normal -560 224 -704 16 2
CIRCLE Normal -1296 400 -1520 48 2
CIRCLE Normal -992 544 -1264 48 2
CIRCLE Normal -784 304 -992 80 2
