Version 4
SHEET 1 980 680
WIRE 208 64 176 64
WIRE 352 64 288 64
WIRE 672 80 640 80
WIRE 816 80 752 80
WIRE 240 160 240 144
WIRE 240 176 240 160
WIRE 704 176 704 160
WIRE -512 192 -512 176
WIRE -384 192 -384 176
WIRE -48 192 -96 192
WIRE 64 192 16 192
WIRE 176 192 176 64
WIRE 176 192 144 192
WIRE 208 192 176 192
WIRE 704 192 704 176
WIRE -512 208 -512 192
WIRE -384 208 -384 192
WIRE 352 208 352 64
WIRE 352 208 272 208
WIRE 416 208 352 208
WIRE 528 208 480 208
WIRE 640 208 640 80
WIRE 640 208 608 208
WIRE 672 208 640 208
WIRE 208 224 176 224
WIRE 816 224 816 80
WIRE 816 224 736 224
WIRE 864 224 816 224
WIRE 896 224 864 224
WIRE 672 240 640 240
WIRE 864 256 864 224
WIRE 240 272 240 240
WIRE 704 288 704 256
WIRE -512 320 -512 288
WIRE -384 320 -384 288
WIRE 864 368 864 336
WIRE 32 400 0 400
WIRE 64 400 32 400
WIRE 176 400 176 224
WIRE 176 400 144 400
WIRE 208 400 176 400
WIRE 336 400 288 400
WIRE 496 416 464 416
WIRE 528 416 496 416
WIRE 640 416 640 240
WIRE 640 416 608 416
WIRE 672 416 640 416
WIRE 800 416 752 416
WIRE 336 464 336 400
WIRE 800 480 800 416
FLAG -512 320 0
FLAG -512 192 vcc
FLAG 240 272 0
FLAG 240 160 vcc
FLAG -384 320 0
FLAG -384 192 mic
FLAG -96 192 mic
FLAG 336 464 0
FLAG 32 400 vcc
FLAG -64 256 0
FLAG 704 288 0
FLAG 704 176 vcc
FLAG 864 224 vo
FLAG 800 480 0
FLAG 496 416 vcc
FLAG 864 368 0
SYMBOL voltage -512 192 R0
WINDOW 123 0 0 Left 0
WINDOW 39 0 0 Left 0
SYMATTR InstName V1
SYMATTR Value 3.3
SYMBOL voltage -384 192 R0
WINDOW 3 24 72 Left 2
WINDOW 123 24 100 Left 2
WINDOW 39 24 44 Left 2
SYMATTR InstName V2
SYMATTR Value SINE(3 10m 1k)
SYMATTR Value2 AC 10m
SYMATTR SpiceLine Rser=2k2
SYMBOL res 160 176 R90
WINDOW 0 0 56 VBottom 2
WINDOW 3 32 56 VTop 2
SYMATTR InstName R1
SYMATTR Value {pR1}
SYMBOL res 304 48 R90
WINDOW 0 0 56 VBottom 2
WINDOW 3 32 56 VTop 2
SYMATTR InstName R2
SYMATTR Value {pRf}
SYMBOL cap 16 176 R90
WINDOW 0 0 32 VBottom 2
WINDOW 3 32 32 VTop 2
SYMATTR InstName C1
SYMATTR Value 47µ
SYMBOL res 304 384 R90
WINDOW 0 0 56 VBottom 2
WINDOW 3 32 56 VTop 2
SYMATTR InstName R3
SYMATTR Value {pRoff}
SYMBOL res 160 384 R90
WINDOW 0 0 56 VBottom 2
WINDOW 3 32 56 VTop 2
SYMATTR InstName R4
SYMATTR Value {pRoff}
SYMBOL OpAmps\\opamp2 240 144 R0
SYMATTR InstName U1
SYMATTR Value LM324
SYMBOL res 624 192 R90
WINDOW 0 0 56 VBottom 2
WINDOW 3 32 56 VTop 2
SYMATTR InstName R5
SYMATTR Value {pR1}
SYMBOL res 768 64 R90
WINDOW 0 0 56 VBottom 2
WINDOW 3 32 56 VTop 2
SYMATTR InstName R6
SYMATTR Value {pRf}
SYMBOL cap 480 192 R90
WINDOW 0 0 32 VBottom 2
WINDOW 3 32 32 VTop 2
SYMATTR InstName C2
SYMATTR Value 47µ
SYMBOL res 768 400 R90
WINDOW 0 0 56 VBottom 2
WINDOW 3 32 56 VTop 2
SYMATTR InstName R7
SYMATTR Value {pRoff}
SYMBOL res 624 400 R90
WINDOW 0 0 56 VBottom 2
WINDOW 3 32 56 VTop 2
SYMATTR InstName R8
SYMATTR Value {pRoff}
SYMBOL OpAmps\\opamp2 704 160 R0
SYMATTR InstName U2
SYMATTR Value LM324
SYMBOL res 848 240 R0
SYMATTR InstName R9
SYMATTR Value 100k
TEXT -112 -24 Left 2 !.parameter pR1=33k pRf=330k pRoff=100k
TEXT -152 -72 Left 2 !.lib Z:\\UNC\\2021\\digital3\\finalLab\\LM324.lib.txt
TEXT -554 472 Left 2 !.tran 0 5m 0
