Version 4
SHEET 1 3064 680
WIRE -576 -224 -576 -240
WIRE -480 -224 -480 -240
WIRE -576 -192 -576 -224
WIRE -480 -192 -480 -224
WIRE 144 -144 96 -144
WIRE 400 -144 224 -144
WIRE 976 -112 928 -112
WIRE 1104 -112 1056 -112
WIRE -576 -80 -576 -112
WIRE -480 -80 -480 -112
WIRE 1856 -48 1792 -48
WIRE 1984 -48 1936 -48
WIRE 2288 -48 2224 -48
WIRE 928 -16 928 -112
WIRE 96 0 96 -144
WIRE 144 0 96 0
WIRE 256 0 224 0
WIRE 1104 0 1104 -112
WIRE 1152 0 1104 0
WIRE 1264 0 1232 0
WIRE 400 16 400 -144
WIRE 448 16 400 16
WIRE 560 16 528 16
WIRE 1456 16 1408 16
WIRE 1568 16 1536 16
WIRE -624 32 -624 16
WIRE -432 32 -432 16
WIRE 1984 32 1984 -48
WIRE 2032 32 1984 32
WIRE 2144 32 2112 32
WIRE 2288 48 2288 -48
WIRE 2336 48 2288 48
WIRE 2448 48 2416 48
WIRE -624 64 -624 32
WIRE -432 64 -432 32
WIRE 160 96 160 80
WIRE 1168 96 1168 80
WIRE 464 112 464 96
WIRE 1472 112 1472 96
WIRE 160 128 160 96
WIRE 1168 128 1168 96
WIRE 2048 128 2048 112
WIRE -16 144 -48 144
WIRE 96 144 96 0
WIRE 96 144 64 144
WIRE 128 144 96 144
WIRE 464 144 464 112
WIRE 992 144 960 144
WIRE 1104 144 1104 0
WIRE 1104 144 1072 144
WIRE 1136 144 1104 144
WIRE 1472 144 1472 112
WIRE 2352 144 2352 128
WIRE 224 160 192 160
WIRE 256 160 256 0
WIRE 256 160 224 160
WIRE 288 160 256 160
WIRE 400 160 400 16
WIRE 400 160 368 160
WIRE 432 160 400 160
WIRE 1264 160 1264 0
WIRE 1264 160 1200 160
WIRE 1296 160 1264 160
WIRE 1408 160 1408 16
WIRE 1408 160 1376 160
WIRE 1440 160 1408 160
WIRE 2048 160 2048 128
WIRE -624 176 -624 144
WIRE -432 176 -432 144
WIRE -48 176 -48 144
WIRE 96 176 80 176
WIRE 128 176 96 176
WIRE 560 176 560 16
WIRE 560 176 496 176
WIRE 656 176 560 176
WIRE 704 176 656 176
WIRE 960 176 960 144
WIRE 1136 176 1088 176
WIRE 1568 176 1568 16
WIRE 1568 176 1504 176
WIRE 1712 176 1568 176
WIRE 1872 176 1840 176
WIRE 1984 176 1984 32
WIRE 1984 176 1952 176
WIRE 2016 176 1984 176
WIRE 2352 176 2352 144
WIRE 432 192 400 192
WIRE 1440 192 1408 192
WIRE 2144 192 2144 32
WIRE 2144 192 2080 192
WIRE 2176 192 2144 192
WIRE 2288 192 2288 48
WIRE 2288 192 2256 192
WIRE 2320 192 2288 192
WIRE 1840 208 1840 176
WIRE 2016 208 1968 208
WIRE 2448 208 2448 48
WIRE 2448 208 2384 208
WIRE 2592 208 2448 208
WIRE 160 224 160 192
WIRE 1168 224 1168 192
WIRE 2320 224 2288 224
WIRE 160 240 160 224
WIRE 464 240 464 208
WIRE 1168 240 1168 224
WIRE 1472 240 1472 208
WIRE 464 256 464 240
WIRE 1408 256 1408 192
WIRE 1472 256 1472 240
WIRE 1968 256 1968 208
WIRE 2048 256 2048 224
WIRE 2048 272 2048 256
WIRE 2352 272 2352 240
WIRE 2352 288 2352 272
FLAG -480 -80 0
FLAG -480 -224 vcc
FLAG -576 -80 0
FLAG -576 -224 vee
FLAG 160 224 vee
FLAG 160 96 vcc
FLAG -432 176 0
FLAG -432 32 v2
FLAG -48 176 0
FLAG 464 240 vee
FLAG 464 112 vcc
FLAG -624 176 0
FLAG -624 32 v1
FLAG 96 176 v1
FLAG 400 192 v2
FLAG 224 160 vo1
FLAG 656 176 vo2
FLAG 1168 224 vee
FLAG 1168 96 vcc
FLAG 960 176 0
FLAG 1472 240 vee
FLAG 1472 112 vcc
FLAG 1408 256 0
FLAG 928 -16 0
FLAG 2048 256 vee
FLAG 2048 128 vcc
FLAG 1840 208 0
FLAG 2352 272 vee
FLAG 2352 144 vcc
FLAG 2288 224 v2
FLAG 1968 256 0
SYMBOL OpAmps\\UniversalOpamp2 160 160 R0
SYMATTR InstName U1
SYMBOL voltage -480 -208 R0
WINDOW 123 0 0 Left 0
WINDOW 39 0 0 Left 0
SYMATTR InstName V1
SYMATTR Value 10
SYMBOL voltage -576 -208 R0
WINDOW 123 0 0 Left 0
WINDOW 39 0 0 Left 0
SYMATTR InstName V2
SYMATTR Value -10
SYMBOL voltage -432 48 R0
WINDOW 123 24 124 Left 2
WINDOW 39 0 0 Left 0
SYMATTR Value2 AC {ppv2}
SYMATTR InstName V3
SYMATTR Value ""
SYMBOL OpAmps\\UniversalOpamp2 464 176 R0
SYMATTR InstName U2
SYMBOL res 240 -160 R90
WINDOW 0 0 56 VBottom 2
WINDOW 3 32 56 VTop 2
SYMATTR InstName R1
SYMATTR Value {r}
SYMBOL voltage -624 48 R0
WINDOW 123 24 124 Left 2
WINDOW 39 0 0 Left 0
SYMATTR Value2 AC {ppv1}
SYMATTR InstName V4
SYMATTR Value ""
SYMBOL res 240 -16 R90
WINDOW 0 0 56 VBottom 2
WINDOW 3 32 56 VTop 2
SYMATTR InstName R2
SYMATTR Value {r}
SYMBOL res 544 0 R90
WINDOW 0 0 56 VBottom 2
WINDOW 3 32 56 VTop 2
SYMATTR InstName R3
SYMATTR Value {r}
SYMBOL res 80 128 R90
WINDOW 0 0 56 VBottom 2
WINDOW 3 32 56 VTop 2
SYMATTR InstName R4
SYMATTR Value {r}
SYMBOL res 384 144 R90
WINDOW 0 0 56 VBottom 2
WINDOW 3 32 56 VTop 2
SYMATTR InstName R5
SYMATTR Value {r}
SYMBOL OpAmps\\UniversalOpamp2 1168 160 R0
SYMATTR InstName U3
SYMBOL OpAmps\\UniversalOpamp2 1472 176 R0
SYMATTR InstName U4
SYMBOL res 960 -128 M90
WINDOW 0 0 56 VBottom 2
WINDOW 3 32 56 VTop 2
SYMATTR InstName R6
SYMATTR Value {r}
SYMBOL res 1248 -16 R90
WINDOW 0 0 56 VBottom 2
WINDOW 3 32 56 VTop 2
SYMATTR InstName R7
SYMATTR Value {r}
SYMBOL res 1552 0 R90
WINDOW 0 0 56 VBottom 2
WINDOW 3 32 56 VTop 2
SYMATTR InstName R8
SYMATTR Value {r}
SYMBOL res 1088 128 R90
WINDOW 0 0 56 VBottom 2
WINDOW 3 32 56 VTop 2
SYMATTR InstName R9
SYMATTR Value {r}
SYMBOL res 1392 144 R90
WINDOW 0 0 56 VBottom 2
WINDOW 3 32 56 VTop 2
SYMATTR InstName R10
SYMATTR Value {r}
SYMBOL OpAmps\\UniversalOpamp2 2048 192 R0
SYMATTR InstName U5
SYMBOL OpAmps\\UniversalOpamp2 2352 208 R0
SYMATTR InstName U6
SYMBOL res 1840 -64 M90
WINDOW 0 0 56 VBottom 2
WINDOW 3 32 56 VTop 2
SYMATTR InstName R11
SYMATTR Value {r}
SYMBOL res 2128 16 R90
WINDOW 0 0 56 VBottom 2
WINDOW 3 32 56 VTop 2
SYMATTR InstName R12
SYMATTR Value {r}
SYMBOL res 2432 32 R90
WINDOW 0 0 56 VBottom 2
WINDOW 3 32 56 VTop 2
SYMATTR InstName R13
SYMATTR Value {r}
SYMBOL res 1968 160 R90
WINDOW 0 0 56 VBottom 2
WINDOW 3 32 56 VTop 2
SYMATTR InstName R14
SYMATTR Value {r}
SYMBOL res 2272 176 R90
WINDOW 0 0 56 VBottom 2
WINDOW 3 32 56 VTop 2
SYMATTR InstName R15
SYMATTR Value {r}
TEXT -608 424 Left 2 !.param ppv1=1 ppv2=1\n**.step param ppv1 list 1 0 1 -.5\n**.step param ppv2 list 0 1 .5
TEXT -64 312 Left 2 !.lib LM324.lib.txt
TEXT 16 -240 Left 4 ;C1: Amplificador Diferencial
TEXT -64 344 Left 2 !.param r=1k
TEXT -666 364 Left 2 !.ac oct 100 1 100Meg
