Version 4
SHEET 1 3064 680
WIRE -112 -432 -112 -448
WIRE -112 -400 -112 -432
WIRE 368 -272 208 -272
WIRE 544 -272 368 -272
WIRE -112 -256 -112 -320
WIRE 208 -240 208 -272
WIRE 544 -240 544 -272
WIRE -416 -224 -416 -240
WIRE -320 -224 -320 -240
WIRE 368 -208 368 -272
WIRE -416 -192 -416 -224
WIRE -320 -192 -320 -224
WIRE 304 -176 288 -176
WIRE 336 -176 304 -176
WIRE 432 -176 400 -176
WIRE 448 -176 432 -176
WIRE 64 -112 0 -112
WIRE 208 -112 208 -160
WIRE 208 -112 144 -112
WIRE 352 -112 352 -144
WIRE 352 -112 208 -112
WIRE 384 -112 384 -144
WIRE 544 -112 544 -160
WIRE 544 -112 384 -112
WIRE -416 -80 -416 -112
WIRE -320 -80 -320 -112
WIRE 544 -64 544 -112
WIRE 352 -48 352 -112
WIRE 0 -32 0 -112
WIRE 352 0 352 -48
WIRE -464 32 -464 16
WIRE -272 32 -272 16
WIRE -464 64 -464 32
WIRE -272 64 -272 32
WIRE 544 96 544 16
WIRE -464 176 -464 144
WIRE -272 176 -272 144
FLAG -320 -80 0
FLAG -320 -224 vcc
FLAG -416 -80 0
FLAG -416 -224 vee
FLAG -272 176 0
FLAG -272 32 v2
FLAG -464 176 0
FLAG -464 32 v1
FLAG 304 -176 vee
FLAG 432 -176 vcc
FLAG 544 96 0
FLAG 0 -32 0
FLAG -112 -256 0
FLAG -112 -432 tst
FLAG 352 -48 tst
SYMBOL voltage -320 -208 R0
WINDOW 123 0 0 Left 0
WINDOW 39 0 0 Left 0
SYMATTR InstName V1
SYMATTR Value 10
SYMBOL voltage -416 -208 R0
WINDOW 123 0 0 Left 0
WINDOW 39 0 0 Left 0
SYMATTR InstName V2
SYMATTR Value -10
SYMBOL voltage -272 48 R0
WINDOW 123 24 124 Left 2
WINDOW 39 0 0 Left 0
SYMATTR Value2 AC {ppv2}
SYMATTR InstName V3
SYMATTR Value ""
SYMBOL voltage -464 48 R0
WINDOW 123 24 124 Left 2
WINDOW 39 0 0 Left 0
SYMATTR Value2 AC {ppv1}
SYMATTR InstName V4
SYMATTR Value ""
SYMBOL OpAmps\\UniversalOpamp2 368 -176 M270
SYMATTR InstName U3
SYMBOL voltage -112 -416 R0
WINDOW 123 24 44 Left 2
WINDOW 39 0 0 Left 0
SYMATTR Value2 AC 1
SYMATTR InstName V5
SYMATTR Value ""
SYMBOL res 192 -256 R0
SYMATTR InstName R1
SYMATTR Value 100
SYMBOL res 528 -256 R0
SYMATTR InstName R2
SYMATTR Value 10k
SYMBOL res 160 -128 R90
WINDOW 0 0 56 VBottom 2
WINDOW 3 32 56 VTop 2
SYMATTR InstName R3
SYMATTR Value 1k
SYMBOL res 528 -80 R0
SYMATTR InstName R4
SYMATTR Value 100k
TEXT -408 296 Left 2 ;.step param ppv1 list 1 0 1 -.5\n.step param ppv2 list 0 1 .5
TEXT -352 448 Left 2 !.step param i list 0 1 2 3\n.param ppv1=table(i, 0,1, 1,0, 2,1, 3,-.5)\n.param ppv2=table(i, 0,0, 1,1, 2,1, 3,.5)
TEXT -504 528 Left 2 !.dc V6 0 10 1
