Version 4
SHEET 1 1816 680
WIRE -416 -224 -416 -240
WIRE -320 -224 -320 -240
WIRE -416 -192 -416 -224
WIRE -320 -192 -320 -224
WIRE 144 -144 96 -144
WIRE 400 -144 224 -144
WIRE 1008 -144 1008 -160
WIRE 1008 -112 1008 -144
WIRE -416 -80 -416 -112
WIRE -320 -80 -320 -112
WIRE 96 0 96 -144
WIRE 144 0 96 0
WIRE 256 0 224 0
WIRE 400 16 400 -144
WIRE 448 16 400 16
WIRE 560 16 528 16
WIRE 1488 16 1328 16
WIRE 1664 16 1488 16
WIRE -464 32 -464 16
WIRE -272 32 -272 16
WIRE 1008 32 1008 -32
WIRE 1328 48 1328 16
WIRE 1664 48 1664 16
WIRE -464 64 -464 32
WIRE -272 64 -272 32
WIRE 1488 80 1488 16
WIRE 160 96 160 80
WIRE 464 112 464 96
WIRE 1424 112 1408 112
WIRE 1456 112 1424 112
WIRE 1552 112 1520 112
WIRE 1568 112 1552 112
WIRE 160 128 160 96
WIRE -16 144 -48 144
WIRE 96 144 96 0
WIRE 96 144 64 144
WIRE 128 144 96 144
WIRE 464 144 464 112
WIRE 256 160 256 0
WIRE 256 160 192 160
WIRE 288 160 256 160
WIRE 400 160 400 16
WIRE 400 160 368 160
WIRE 432 160 400 160
WIRE -464 176 -464 144
WIRE -272 176 -272 144
WIRE -48 176 -48 144
WIRE 96 176 80 176
WIRE 128 176 96 176
WIRE 560 176 560 16
WIRE 560 176 496 176
WIRE 656 176 560 176
WIRE 704 176 656 176
WIRE 1184 176 1120 176
WIRE 1328 176 1328 128
WIRE 1328 176 1264 176
WIRE 1472 176 1472 144
WIRE 1472 176 1328 176
WIRE 1504 176 1504 144
WIRE 1664 176 1664 128
WIRE 1664 176 1504 176
WIRE 432 192 400 192
WIRE 160 224 160 192
WIRE 1664 224 1664 176
WIRE 160 240 160 224
WIRE 464 240 464 208
WIRE 1472 240 1472 176
WIRE 464 256 464 240
WIRE 1120 256 1120 176
WIRE 1472 288 1472 240
WIRE 1664 384 1664 304
FLAG -320 -80 0
FLAG -320 -224 vcc
FLAG -416 -80 0
FLAG -416 -224 vee
FLAG 160 224 vee
FLAG 160 96 vcc
FLAG -272 176 0
FLAG -272 32 v2
FLAG -48 176 0
FLAG 464 240 vee
FLAG 464 112 vcc
FLAG 656 176 vo
FLAG -464 176 0
FLAG -464 32 v1
FLAG 96 176 v1
FLAG 400 192 v2
FLAG 1424 112 vee
FLAG 1552 112 vcc
FLAG 1664 384 0
FLAG 1120 256 0
FLAG 1008 32 0
FLAG 1008 -144 tst
FLAG 1472 240 tst
SYMBOL OpAmps\\UniversalOpamp2 160 160 R0
SYMATTR InstName U1
SYMBOL voltage -320 -208 R0
WINDOW 123 0 0 Left 0
WINDOW 39 0 0 Left 0
SYMATTR InstName V1
SYMATTR Value 10
SYMBOL voltage -416 -208 R0
WINDOW 123 0 0 Left 0
WINDOW 39 0 0 Left 0
SYMATTR InstName V2
SYMATTR Value -10
SYMBOL res 240 -16 R90
WINDOW 0 0 56 VBottom 2
WINDOW 3 32 56 VTop 2
SYMATTR InstName R2
SYMATTR Value 1k
SYMBOL res 80 128 R90
WINDOW 0 0 56 VBottom 2
WINDOW 3 32 56 VTop 2
SYMATTR InstName R3
SYMATTR Value 1k
SYMBOL voltage -272 48 R0
WINDOW 123 24 124 Left 2
WINDOW 39 0 0 Left 0
SYMATTR Value2 AC {ppv2}
SYMATTR InstName V3
SYMATTR Value ""
SYMBOL OpAmps\\UniversalOpamp2 464 176 R0
SYMATTR InstName U2
SYMBOL res 544 0 R90
WINDOW 0 0 56 VBottom 2
WINDOW 3 32 56 VTop 2
SYMATTR InstName R5
SYMATTR Value 1k
SYMBOL res 384 144 R90
WINDOW 0 0 56 VBottom 2
WINDOW 3 32 56 VTop 2
SYMATTR InstName R6
SYMATTR Value 1k
SYMBOL res 240 -160 R90
WINDOW 0 0 56 VBottom 2
WINDOW 3 32 56 VTop 2
SYMATTR InstName R1
SYMATTR Value 1k
SYMBOL voltage -464 48 R0
WINDOW 123 24 124 Left 2
WINDOW 39 0 0 Left 0
SYMATTR Value2 AC {ppv1}
SYMATTR InstName V4
SYMATTR Value ""
SYMBOL OpAmps\\UniversalOpamp2 1488 112 M270
SYMATTR InstName U3
SYMBOL res 1312 32 R0
SYMATTR InstName R4
SYMATTR Value 100
SYMBOL res 1648 32 R0
SYMATTR InstName R7
SYMATTR Value 10k
SYMBOL res 1648 208 R0
SYMATTR InstName R8
SYMATTR Value 100k
SYMBOL res 1280 160 R90
WINDOW 0 0 56 VBottom 2
WINDOW 3 32 56 VTop 2
SYMATTR InstName R9
SYMATTR Value 1k
SYMBOL voltage 1008 -128 R0
WINDOW 123 24 44 Left 2
WINDOW 39 0 0 Left 0
SYMATTR InstName V5
SYMATTR Value ""
SYMATTR Value2 AC 1
SYMBOL res 1376 272 R0
SYMATTR InstName R10
TEXT 128 -248 Left 2 !.ac dec 100 1 100Meg
TEXT -408 296 Left 2 ;.step param ppv1 list 1 0 1 -.5\n.step param ppv2 list 0 1 .5
TEXT -352 448 Left 2 !.step param i list 0 1 2 3\n.param ppv1=table(i, 0,1, 1,0, 2,1, 3,-.5)\n.param ppv2=table(i, 0,0, 1,1, 2,1, 3,.5)
