Version 4
SHEET 1 896 680
WIRE -416 -224 -416 -240
WIRE -320 -224 -320 -240
WIRE -416 -192 -416 -224
WIRE -320 -192 -320 -224
WIRE 144 -144 96 -144
WIRE 400 -144 224 -144
WIRE -416 -80 -416 -112
WIRE -320 -80 -320 -112
WIRE 96 0 96 -144
WIRE 144 0 96 0
WIRE 256 0 224 0
WIRE 400 16 400 -144
WIRE 448 16 400 16
WIRE 560 16 528 16
WIRE -208 32 -208 16
WIRE -208 64 -208 32
WIRE 160 96 160 80
WIRE 464 112 464 96
WIRE 160 128 160 96
WIRE -16 144 -48 144
WIRE 96 144 96 0
WIRE 96 144 64 144
WIRE 128 144 96 144
WIRE 464 144 464 112
WIRE -48 160 -48 144
WIRE 256 160 256 0
WIRE 256 160 192 160
WIRE 288 160 256 160
WIRE 400 160 400 16
WIRE 400 160 368 160
WIRE 432 160 400 160
WIRE -208 176 -208 144
WIRE 128 176 80 176
WIRE 560 176 560 16
WIRE 560 176 496 176
WIRE 656 176 560 176
WIRE 704 176 656 176
WIRE 432 192 400 192
WIRE 80 224 80 176
WIRE 160 224 160 192
WIRE 400 224 400 192
WIRE 160 240 160 224
WIRE 400 240 400 224
WIRE 464 240 464 208
WIRE 464 256 464 240
FLAG -320 -80 0
FLAG -320 -224 vcc
FLAG -416 -80 0
FLAG -416 -224 vee
FLAG 160 224 vee
FLAG 160 96 vcc
FLAG -208 176 0
FLAG -208 32 vi
FLAG -48 160 0
FLAG 464 240 vee
FLAG 464 112 vcc
FLAG 400 224 vi
FLAG 80 224 0
FLAG 656 176 vo
SYMBOL OpAmps\\UniversalOpamp2 160 160 R0
SYMATTR InstName U1
SYMBOL voltage -320 -208 R0
WINDOW 123 0 0 Left 0
WINDOW 39 0 0 Left 0
SYMATTR InstName V1
SYMATTR Value 12
SYMBOL voltage -416 -208 R0
WINDOW 123 0 0 Left 0
WINDOW 39 0 0 Left 0
SYMATTR InstName V2
SYMATTR Value -12
SYMBOL res 240 -16 R90
WINDOW 0 0 56 VBottom 2
WINDOW 3 32 56 VTop 2
SYMATTR InstName R2
SYMATTR Value 1k
SYMBOL res 80 128 R90
WINDOW 0 0 56 VBottom 2
WINDOW 3 32 56 VTop 2
SYMATTR InstName R3
SYMATTR Value 1k
SYMBOL voltage -208 48 R0
WINDOW 123 24 124 Left 2
WINDOW 39 0 0 Left 0
SYMATTR Value2 AC 1
SYMATTR InstName V3
SYMATTR Value ""
SYMBOL OpAmps\\UniversalOpamp2 464 176 R0
SYMATTR InstName U2
SYMBOL res 544 0 R90
WINDOW 0 0 56 VBottom 2
WINDOW 3 32 56 VTop 2
SYMATTR InstName R5
SYMATTR Value 1k
SYMBOL res 384 144 R90
WINDOW 0 0 56 VBottom 2
WINDOW 3 32 56 VTop 2
SYMATTR InstName R6
SYMATTR Value 1k
SYMBOL res 240 -160 R90
WINDOW 0 0 56 VBottom 2
WINDOW 3 32 56 VTop 2
SYMATTR InstName R1
SYMATTR Value 1k
TEXT -248 368 Left 2 !.ac dec 100 1 1Meg
